MODEL 1
REMARK VINA RESULT:   -13.969      0.000      0.000
REMARK INTER + INTRA:         -19.087
REMARK INTER:                 -18.644
REMARK INTRA:                  -0.443
REMARK UNBOUND:                 0.599
REMARK Flexibility Score: inf
REMARK Active torsions [ 7 ] -> [ 7 ]
ROOT
ATOM      1  C1  LIG L   1      15.833  54.710  12.407  1.00  0.00     0.038 A 
ATOM      2  C2  LIG L   1      16.916  54.554  11.428  1.00  0.00    -0.029 A 
ATOM      3  C3  LIG L   1      17.897  53.532  11.661  1.00  0.00     0.007 A 
ATOM      4  C4  LIG L   1      17.814  52.685  12.825  1.00  0.00     0.024 A 
ATOM      5  C5  LIG L   1      16.762  52.832  13.775  1.00  0.00     0.035 A 
ATOM      6  C6  LIG L   1      15.766  53.868  13.545  1.00  0.00     0.047 A 
ATOM      7  C7  LIG L   1      17.050  55.429  10.160  1.00  0.00     0.045 C 
ENDROOT
BRANCH    1    8
ATOM      8  N1  LIG L   1      14.850  55.688  12.236  1.00  0.00    -0.283 N 
ATOM      9  H1  LIG L   1      13.975  55.438  11.859  1.00  0.00     0.155 HD
BRANCH    8   10
ATOM     10  C8  LIG L   1      15.092  57.006  12.592  1.00  0.00     0.220 A 
ATOM     11  C9  LIG L   1      14.255  59.231  12.745  1.00  0.00     0.077 A 
ATOM     12 C10  LIG L   1      15.508  59.691  13.271  1.00  0.00     0.048 A 
ATOM     13  N2  LIG L   1      14.096  57.901  12.427  1.00  0.00    -0.214 NA
ATOM     14 C11  LIG L   1      16.534  58.734  13.435  1.00  0.00     0.116 A 
ATOM     15  N3  LIG L   1      16.313  57.417  13.095  1.00  0.00    -0.223 NA
BRANCH   11   16
ATOM     16 C12  LIG L   1      13.076  60.123  12.511  1.00  0.00     0.019 A 
ATOM     17 C13  LIG L   1      11.794  62.270  12.847  1.00  0.00     0.020 A 
ATOM     18 C14  LIG L   1      12.954  61.448  13.105  1.00  0.00     0.013 A 
ATOM     19 C15  LIG L   1      10.763  61.744  11.991  1.00  0.00     0.111 A 
ATOM     20  N4  LIG L   1      10.892  60.468  11.423  1.00  0.00    -0.263 NA
ATOM     21 C16  LIG L   1      11.997  59.655  11.653  1.00  0.00     0.120 A 
ENDBRANCH   11   16
ENDBRANCH    8   10
ENDBRANCH    1    8
BRANCH    5   22
ATOM     22  N5  LIG L   1      16.741  51.942  14.908  1.00  0.00    -0.281 N 
ATOM     23 C17  LIG L   1      15.707  51.728  15.805  1.00  0.00     0.248 C 
ATOM     24  H2  LIG L   1      17.563  51.422  15.064  1.00  0.00     0.155 HD
ATOM     25  O1  LIG L   1      14.713  52.433  15.894  1.00  0.00    -0.270 OA
BRANCH   23   26
ATOM     26 C18  LIG L   1      15.797  50.573  16.749  1.00  0.00     0.037 A 
ATOM     27 C19  LIG L   1      17.057  49.853  16.951  1.00  0.00     0.013 A 
ATOM     28 C20  LIG L   1      14.609  50.159  17.465  1.00  0.00     0.013 A 
ATOM     29 C21  LIG L   1      17.112  48.731  17.855  1.00  0.00     0.002 A 
ATOM     30 C22  LIG L   1      14.667  49.060  18.351  1.00  0.00     0.002 A 
ATOM     31 C23  LIG L   1      15.902  48.324  18.566  1.00  0.00    -0.064 A 
BRANCH   31   32
ATOM     32 C24  LIG L   1      15.864  47.127  19.533  1.00  0.00    -0.043 C 
BRANCH   32   33
ATOM     33  N6  LIG L   1      17.136  46.767  20.228  1.00  0.00     0.380 N 
ATOM     34 C25  LIG L   1      17.463  47.783  21.295  1.00  0.00    -0.097 C 
ATOM     35 C26  LIG L   1      17.082  45.363  20.836  1.00  0.00    -0.097 C 
ATOM     36  H3  LIG L   1      17.874  46.772  19.523  1.00  0.00    -0.082 HD
ATOM     37 C27  LIG L   1      18.796  47.439  22.016  1.00  0.00    -0.098 C 
ATOM     38 C28  LIG L   1      18.429  44.995  21.540  1.00  0.00    -0.098 C 
ATOM     39  N7  LIG L   1      18.743  46.039  22.613  1.00  0.00     0.375 N 
ATOM     40 C29  LIG L   1      19.979  45.665  23.315  1.00  0.00    -0.096 C 
ATOM     41  H4  LIG L   1      17.992  46.059  23.303  1.00  0.00    -0.082 HD
ENDBRANCH   32   33
ENDBRANCH   31   32
ENDBRANCH   23   26
ENDBRANCH    5   22
TORSDOF 7
ENDMDL
MODEL 2
REMARK VINA RESULT:   -12.062      1.033      1.576
REMARK INTER + INTRA:         -16.399
REMARK INTER:                 -15.670
REMARK INTRA:                  -0.728
REMARK UNBOUND:                 0.599
REMARK Flexibility Score: inf
REMARK Active torsions [ 7 ] -> [ 7 ]
ROOT
ATOM      1  C1  LIG L   1      16.406  55.570  12.930  1.00  0.00     0.038 A 
ATOM      2  C2  LIG L   1      17.038  55.163  11.668  1.00  0.00    -0.029 A 
ATOM      3  C3  LIG L   1      17.572  53.835  11.575  1.00  0.00     0.007 A 
ATOM      4  C4  LIG L   1      17.486  52.928  12.693  1.00  0.00     0.024 A 
ATOM      5  C5  LIG L   1      16.870  53.318  13.918  1.00  0.00     0.035 A 
ATOM      6  C6  LIG L   1      16.329  54.665  14.019  1.00  0.00     0.047 A 
ATOM      7  C7  LIG L   1      17.153  56.091  10.437  1.00  0.00     0.045 C 
ENDROOT
BRANCH    1    8
ATOM      8  N1  LIG L   1      15.870  56.851  13.082  1.00  0.00    -0.283 N 
ATOM      9  H1  LIG L   1      16.393  57.546  13.544  1.00  0.00     0.155 HD
BRANCH    8   10
ATOM     10  C8  LIG L   1      14.610  57.155  12.590  1.00  0.00     0.220 A 
ATOM     11  C9  LIG L   1      12.978  58.832  12.148  1.00  0.00     0.077 A 
ATOM     12 C10  LIG L   1      12.072  57.848  11.629  1.00  0.00     0.048 A 
ATOM     13  N2  LIG L   1      14.217  58.445  12.607  1.00  0.00    -0.214 NA
ATOM     14 C11  LIG L   1      12.509  56.504  11.621  1.00  0.00     0.116 A 
ATOM     15  N3  LIG L   1      13.761  56.181  12.098  1.00  0.00    -0.223 NA
BRANCH   11   16
ATOM     16 C12  LIG L   1      12.659  60.293  12.227  1.00  0.00     0.019 A 
ATOM     17 C13  LIG L   1      11.103  62.260  11.956  1.00  0.00     0.020 A 
ATOM     18 C14  LIG L   1      11.359  60.841  11.861  1.00  0.00     0.013 A 
ATOM     19 C15  LIG L   1      12.164  63.115  12.418  1.00  0.00     0.111 A 
ATOM     20  N4  LIG L   1      13.411  62.576  12.769  1.00  0.00    -0.263 NA
ATOM     21 C16  LIG L   1      13.686  61.214  12.690  1.00  0.00     0.120 A 
ENDBRANCH   11   16
ENDBRANCH    8   10
ENDBRANCH    1    8
BRANCH    5   22
ATOM     22  N5  LIG L   1      16.814  52.353  14.987  1.00  0.00    -0.281 N 
ATOM     23 C17  LIG L   1      15.710  51.969  15.731  1.00  0.00     0.248 C 
ATOM     24  H2  LIG L   1      17.664  51.912  15.217  1.00  0.00     0.155 HD
ATOM     25  O1  LIG L   1      14.639  52.558  15.732  1.00  0.00    -0.270 OA
BRANCH   23   26
ATOM     26 C18  LIG L   1      15.815  50.766  16.612  1.00  0.00     0.037 A 
ATOM     27 C19  LIG L   1      17.090  50.070  16.797  1.00  0.00     0.013 A 
ATOM     28 C20  LIG L   1      14.627  50.282  17.281  1.00  0.00     0.013 A 
ATOM     29 C21  LIG L   1      17.161  48.902  17.639  1.00  0.00     0.002 A 
ATOM     30 C22  LIG L   1      14.699  49.137  18.106  1.00  0.00     0.002 A 
ATOM     31 C23  LIG L   1      15.950  48.424  18.304  1.00  0.00    -0.064 A 
BRANCH   31   32
ATOM     32 C24  LIG L   1      15.928  47.174  19.203  1.00  0.00    -0.043 C 
BRANCH   32   33
ATOM     33  N6  LIG L   1      17.148  46.895  20.017  1.00  0.00     0.380 N 
ATOM     34 C25  LIG L   1      17.351  47.972  21.055  1.00  0.00    -0.097 C 
ATOM     35 C26  LIG L   1      17.089  45.521  20.690  1.00  0.00    -0.097 C 
ATOM     36  H3  LIG L   1      17.942  46.893  19.377  1.00  0.00    -0.082 HD
ATOM     37 C27  LIG L   1      18.629  47.712  21.900  1.00  0.00    -0.098 C 
ATOM     38 C28  LIG L   1      18.383  45.237  21.520  1.00  0.00    -0.098 C 
ATOM     39  N7  LIG L   1      18.571  46.342  22.561  1.00  0.00     0.375 N 
ATOM     40 C29  LIG L   1      19.755  46.047  23.381  1.00  0.00    -0.096 C 
ATOM     41  H4  LIG L   1      17.764  46.367  23.184  1.00  0.00    -0.082 HD
ENDBRANCH   32   33
ENDBRANCH   31   32
ENDBRANCH   23   26
ENDBRANCH    5   22
TORSDOF 7
ENDMDL
MODEL 3
REMARK VINA RESULT:   -12.005      3.007     12.419
REMARK INTER + INTRA:         -16.319
REMARK INTER:                 -15.352
REMARK INTRA:                  -0.966
REMARK UNBOUND:                 0.599
REMARK Flexibility Score: inf
REMARK Active torsions [ 7 ] -> [ 7 ]
ROOT
ATOM      1  C1  LIG L   1      16.859  48.701  17.634  1.00  0.00     0.038 A 
ATOM      2  C2  LIG L   1      15.543  48.423  18.222  1.00  0.00    -0.029 A 
ATOM      3  C3  LIG L   1      14.480  49.354  17.973  1.00  0.00     0.007 A 
ATOM      4  C4  LIG L   1      14.703  50.527  17.165  1.00  0.00     0.024 A 
ATOM      5  C5  LIG L   1      15.979  50.798  16.590  1.00  0.00     0.035 A 
ATOM      6  C6  LIG L   1      17.062  49.859  16.841  1.00  0.00     0.047 A 
ATOM      7  C7  LIG L   1      15.245  47.179  19.090  1.00  0.00     0.045 C 
ENDROOT
BRANCH    1    8
ATOM      8  N1  LIG L   1      17.934  47.834  17.843  1.00  0.00    -0.283 N 
ATOM      9  H1  LIG L   1      17.983  46.989  17.339  1.00  0.00     0.155 HD
BRANCH    8   10
ATOM     10  C8  LIG L   1      18.933  48.149  18.752  1.00  0.00     0.220 A 
ATOM     11  C9  LIG L   1      20.957  49.329  19.182  1.00  0.00     0.077 A 
ATOM     12 C10  LIG L   1      20.996  48.819  20.523  1.00  0.00     0.048 A 
ATOM     13  N2  LIG L   1      19.921  48.974  18.347  1.00  0.00    -0.214 NA
ATOM     14 C11  LIG L   1      19.949  47.959  20.921  1.00  0.00     0.116 A 
ATOM     15  N3  LIG L   1      18.942  47.639  20.037  1.00  0.00    -0.223 NA
BRANCH   11   16
ATOM     16 C12  LIG L   1      21.993  50.246  18.613  1.00  0.00     0.019 A 
ATOM     17 C13  LIG L   1      24.212  50.696  17.499  1.00  0.00     0.020 A 
ATOM     18 C14  LIG L   1      23.244  49.768  18.037  1.00  0.00     0.013 A 
ATOM     19 C15  LIG L   1      23.910  52.103  17.549  1.00  0.00     0.111 A 
ATOM     20  N4  LIG L   1      22.702  52.551  18.105  1.00  0.00    -0.263 NA
ATOM     21 C16  LIG L   1      21.751  51.681  18.628  1.00  0.00     0.120 A 
ENDBRANCH   11   16
ENDBRANCH    8   10
ENDBRANCH    1    8
BRANCH    5   22
ATOM     22  N5  LIG L   1      16.123  51.986  15.786  1.00  0.00    -0.281 N 
ATOM     23 C17  LIG L   1      15.631  52.217  14.512  1.00  0.00     0.248 C 
ATOM     24  H2  LIG L   1      16.634  52.723  16.193  1.00  0.00     0.155 HD
ATOM     25  O1  LIG L   1      15.171  51.352  13.781  1.00  0.00    -0.270 OA
BRANCH   23   26
ATOM     26 C18  LIG L   1      15.668  53.608  13.965  1.00  0.00     0.037 A 
ATOM     27 C19  LIG L   1      16.939  54.301  13.736  1.00  0.00     0.013 A 
ATOM     28 C20  LIG L   1      14.420  54.278  13.668  1.00  0.00     0.013 A 
ATOM     29 C21  LIG L   1      16.946  55.648  13.224  1.00  0.00     0.002 A 
ATOM     30 C22  LIG L   1      14.431  55.598  13.165  1.00  0.00     0.002 A 
ATOM     31 C23  LIG L   1      15.676  56.311  12.934  1.00  0.00    -0.064 A 
BRANCH   31   32
ATOM     32 C24  LIG L   1      15.588  57.754  12.404  1.00  0.00    -0.043 C 
BRANCH   32   33
ATOM     33  N6  LIG L   1      14.316  58.497  12.652  1.00  0.00     0.380 N 
ATOM     34 C25  LIG L   1      14.605  59.885  13.168  1.00  0.00    -0.097 C 
ATOM     35 C26  LIG L   1      13.442  58.572  11.397  1.00  0.00    -0.097 C 
ATOM     36  H3  LIG L   1      13.798  57.977  13.360  1.00  0.00    -0.082 HD
ATOM     37 C27  LIG L   1      13.293  60.669  13.452  1.00  0.00    -0.098 C 
ATOM     38 C28  LIG L   1      12.105  59.333  11.680  1.00  0.00    -0.098 C 
ATOM     39  N7  LIG L   1      12.421  60.735  12.206  1.00  0.00     0.375 N 
ATOM     40 C29  LIG L   1      11.167  61.473  12.417  1.00  0.00    -0.096 C 
ATOM     41  H4  LIG L   1      12.966  61.247  11.512  1.00  0.00    -0.082 HD
ENDBRANCH   32   33
ENDBRANCH   31   32
ENDBRANCH   23   26
ENDBRANCH    5   22
TORSDOF 7
ENDMDL
MODEL 4
REMARK VINA RESULT:   -11.812      3.738     12.222
REMARK INTER + INTRA:         -16.046
REMARK INTER:                 -15.821
REMARK INTRA:                  -0.226
REMARK UNBOUND:                 0.599
REMARK Flexibility Score: inf
REMARK Active torsions [ 7 ] -> [ 7 ]
ROOT
ATOM      1  C1  LIG L   1      18.097  48.613  18.859  1.00  0.00     0.038 A 
ATOM      2  C2  LIG L   1      17.104  47.536  18.956  1.00  0.00    -0.029 A 
ATOM      3  C3  LIG L   1      16.008  47.539  18.029  1.00  0.00     0.007 A 
ATOM      4  C4  LIG L   1      15.893  48.572  17.030  1.00  0.00     0.024 A 
ATOM      5  C5  LIG L   1      16.857  49.617  16.931  1.00  0.00     0.035 A 
ATOM      6  C6  LIG L   1      17.969  49.621  17.869  1.00  0.00     0.047 A 
ATOM      7  C7  LIG L   1      17.181  46.400  20.003  1.00  0.00     0.045 C 
ENDROOT
BRANCH    1    8
ATOM      8  N1  LIG L   1      19.184  48.666  19.734  1.00  0.00    -0.283 N 
ATOM      9  H1  LIG L   1      19.038  48.908  20.678  1.00  0.00     0.155 HD
BRANCH    8   10
ATOM     10  C8  LIG L   1      20.466  48.381  19.290  1.00  0.00     0.220 A 
ATOM     11  C9  LIG L   1      22.548  49.219  18.494  1.00  0.00     0.077 A 
ATOM     12 C10  LIG L   1      23.064  47.887  18.367  1.00  0.00     0.048 A 
ATOM     13  N2  LIG L   1      21.265  49.414  18.954  1.00  0.00    -0.214 NA
ATOM     14 C11  LIG L   1      22.207  46.822  18.727  1.00  0.00     0.116 A 
ATOM     15  N3  LIG L   1      20.931  47.083  19.179  1.00  0.00    -0.223 NA
BRANCH   11   16
ATOM     16 C12  LIG L   1      23.331  50.448  18.150  1.00  0.00     0.019 A 
ATOM     17 C13  LIG L   1      24.946  51.738  16.703  1.00  0.00     0.020 A 
ATOM     18 C14  LIG L   1      24.213  50.527  16.991  1.00  0.00     0.013 A 
ATOM     19 C15  LIG L   1      24.785  52.860  17.590  1.00  0.00     0.111 A 
ATOM     20  N4  LIG L   1      23.933  52.773  18.701  1.00  0.00    -0.263 NA
ATOM     21 C16  LIG L   1      23.213  51.621  19.002  1.00  0.00     0.120 A 
ENDBRANCH   11   16
ENDBRANCH    8   10
ENDBRANCH    1    8
BRANCH    5   22
ATOM     22  N5  LIG L   1      16.679  50.609  15.900  1.00  0.00    -0.281 N 
ATOM     23 C17  LIG L   1      15.715  51.601  15.830  1.00  0.00     0.248 C 
ATOM     24  H2  LIG L   1      17.321  50.576  15.154  1.00  0.00     0.155 HD
ATOM     25  O1  LIG L   1      14.723  51.652  16.542  1.00  0.00    -0.270 OA
BRANCH   23   26
ATOM     26 C18  LIG L   1      15.867  52.686  14.813  1.00  0.00     0.037 A 
ATOM     27 C19  LIG L   1      14.815  53.684  14.603  1.00  0.00     0.013 A 
ATOM     28 C20  LIG L   1      17.076  52.736  14.018  1.00  0.00     0.013 A 
ATOM     29 C21  LIG L   1      14.980  54.709  13.604  1.00  0.00     0.002 A 
ATOM     30 C22  LIG L   1      17.235  53.744  13.040  1.00  0.00     0.002 A 
ATOM     31 C23  LIG L   1      16.205  54.743  12.808  1.00  0.00    -0.064 A 
BRANCH   31   32
ATOM     32 C24  LIG L   1      16.457  55.788  11.705  1.00  0.00    -0.043 C 
BRANCH   32   33
ATOM     33  N6  LIG L   1      15.796  57.118  11.860  1.00  0.00     0.380 N 
ATOM     34 C25  LIG L   1      14.305  56.953  12.028  1.00  0.00    -0.097 C 
ATOM     35 C26  LIG L   1      16.373  57.914  13.034  1.00  0.00    -0.097 C 
ATOM     36  H3  LIG L   1      15.981  57.646  11.007  1.00  0.00    -0.082 HD
ATOM     37 C27  LIG L   1      13.595  58.328  12.170  1.00  0.00    -0.098 C 
ATOM     38 C28  LIG L   1      15.685  59.311  13.167  1.00  0.00    -0.098 C 
ATOM     39  N7  LIG L   1      14.177  59.121  13.332  1.00  0.00     0.375 N 
ATOM     40 C29  LIG L   1      13.534  60.430  13.515  1.00  0.00    -0.096 C 
ATOM     41  H4  LIG L   1      13.989  58.567  14.168  1.00  0.00    -0.082 HD
ENDBRANCH   32   33
ENDBRANCH   31   32
ENDBRANCH   23   26
ENDBRANCH    5   22
TORSDOF 7
ENDMDL
MODEL 5
REMARK VINA RESULT:   -11.646      3.799     12.468
REMARK INTER + INTRA:         -15.813
REMARK INTER:                 -14.923
REMARK INTRA:                  -0.890
REMARK UNBOUND:                 0.599
REMARK Flexibility Score: inf
REMARK Active torsions [ 7 ] -> [ 7 ]
ROOT
ATOM      1  C1  LIG L   1      18.165  48.386  19.057  1.00  0.00     0.038 A 
ATOM      2  C2  LIG L   1      17.153  47.333  19.208  1.00  0.00    -0.029 A 
ATOM      3  C3  LIG L   1      16.012  47.360  18.338  1.00  0.00     0.007 A 
ATOM      4  C4  LIG L   1      15.870  48.394  17.343  1.00  0.00     0.024 A 
ATOM      5  C5  LIG L   1      16.852  49.415  17.192  1.00  0.00     0.035 A 
ATOM      6  C6  LIG L   1      18.010  49.395  18.072  1.00  0.00     0.047 A 
ATOM      7  C7  LIG L   1      17.256  46.197  20.252  1.00  0.00     0.045 C 
ENDROOT
BRANCH    1    8
ATOM      8  N1  LIG L   1      19.296  48.414  19.875  1.00  0.00    -0.283 N 
ATOM      9  H1  LIG L   1      19.204  48.661  20.824  1.00  0.00     0.155 HD
BRANCH    8   10
ATOM     10  C8  LIG L   1      20.547  48.098  19.367  1.00  0.00     0.220 A 
ATOM     11  C9  LIG L   1      22.659  48.885  18.596  1.00  0.00     0.077 A 
ATOM     12 C10  LIG L   1      23.086  47.543  18.322  1.00  0.00     0.048 A 
ATOM     13  N2  LIG L   1      21.402  49.110  19.112  1.00  0.00    -0.214 NA
ATOM     14 C11  LIG L   1      22.172  46.502  18.599  1.00  0.00     0.116 A 
ATOM     15  N3  LIG L   1      20.926  46.793  19.112  1.00  0.00    -0.223 NA
BRANCH   11   16
ATOM     16 C12  LIG L   1      23.510  50.093  18.353  1.00  0.00     0.019 A 
ATOM     17 C13  LIG L   1      24.994  51.527  16.903  1.00  0.00     0.020 A 
ATOM     18 C14  LIG L   1      24.184  50.345  17.086  1.00  0.00     0.013 A 
ATOM     19 C15  LIG L   1      25.119  52.445  18.004  1.00  0.00     0.111 A 
ATOM     20  N4  LIG L   1      24.465  52.193  19.219  1.00  0.00    -0.263 NA
ATOM     21 C16  LIG L   1      23.677  51.064  19.423  1.00  0.00     0.120 A 
ENDBRANCH   11   16
ENDBRANCH    8   10
ENDBRANCH    1    8
BRANCH    5   22
ATOM     22  N5  LIG L   1      16.645  50.410  16.168  1.00  0.00    -0.281 N 
ATOM     23 C17  LIG L   1      15.556  51.250  16.005  1.00  0.00     0.248 C 
ATOM     24  H2  LIG L   1      17.366  50.503  15.504  1.00  0.00     0.155 HD
ATOM     25  O1  LIG L   1      14.492  51.124  16.593  1.00  0.00    -0.270 OA
BRANCH   23   26
ATOM     26 C18  LIG L   1      15.657  52.384  15.037  1.00  0.00     0.037 A 
ATOM     27 C19  LIG L   1      16.592  52.340  13.909  1.00  0.00     0.013 A 
ATOM     28 C20  LIG L   1      14.820  53.549  15.232  1.00  0.00     0.013 A 
ATOM     29 C21  LIG L   1      16.682  53.455  13.001  1.00  0.00     0.002 A 
ATOM     30 C22  LIG L   1      14.910  54.640  14.339  1.00  0.00     0.002 A 
ATOM     31 C23  LIG L   1      15.832  54.624  13.215  1.00  0.00    -0.064 A 
BRANCH   31   32
ATOM     32 C24  LIG L   1      15.877  55.868  12.308  1.00  0.00    -0.043 C 
BRANCH   32   33
ATOM     33  N6  LIG L   1      15.151  57.085  12.780  1.00  0.00     0.380 N 
ATOM     34 C25  LIG L   1      16.065  58.285  12.771  1.00  0.00    -0.097 C 
ATOM     35 C26  LIG L   1      13.901  57.369  11.942  1.00  0.00    -0.097 C 
ATOM     36  H3  LIG L   1      14.848  56.902  13.737  1.00  0.00    -0.082 HD
ATOM     37 C27  LIG L   1      15.334  59.559  13.279  1.00  0.00    -0.098 C 
ATOM     38 C28  LIG L   1      13.142  58.632  12.464  1.00  0.00    -0.098 C 
ATOM     39  N7  LIG L   1      14.087  59.834  12.450  1.00  0.00     0.375 N 
ATOM     40 C29  LIG L   1      13.360  61.036  12.885  1.00  0.00    -0.096 C 
ATOM     41  H4  LIG L   1      14.417  60.002  11.499  1.00  0.00    -0.082 HD
ENDBRANCH   32   33
ENDBRANCH   31   32
ENDBRANCH   23   26
ENDBRANCH    5   22
TORSDOF 7
ENDMDL
