REMARK  Name = DRVYIHPF.pdb
REMARK                            x       y       z     vdW  Elec       q    Type
REMARK                         _______ _______ _______ _____ _____    ______ ____
ROOT
ATOM      1  C   TYR A  4       -0.488   0.593   0.983  0.00  0.00    +0.262 C 
ATOM      2  N   ILE A  5       -0.483   1.726   0.145  0.00  0.00    -0.196 NA
ATOM      3  O   TYR A  4        0.301  -0.196   0.591  0.00  0.00    -0.271 OA
ENDROOT
BRANCH   2   4
ATOM      4  CA  ILE A  5        0.518   1.556  -1.091  0.00  0.00    +0.173 C 
BRANCH   4   5
ATOM      5  C   ILE A  5        1.798   1.277  -0.183  0.00  0.00    +0.262 C 
ATOM      6  N   HIS A  6        2.524   0.101  -0.755  0.00  0.00    -0.196 NA
ATOM      7  O   ILE A  5        2.146   1.748   0.673  0.00  0.00    -0.271 OA
BRANCH   6   8
ATOM      8  CA  HIS A  6        3.734   0.013   0.327  0.00  0.00    +0.177 C 
BRANCH   8   9
ATOM      9  C   HIS A  6        4.691   0.653  -0.748  0.00  0.00    +0.246 C 
ATOM     10  N   PRO A  7        5.479   1.788  -0.444  0.00  0.00    -0.272 N 
ATOM     11  CD  PRO A  7        5.512   2.663   0.651  0.00  0.00    +0.094 C 
ATOM     12  CG  PRO A  7        6.699   3.563   0.559  0.00  0.00    +0.024 C 
ATOM     13  CB  PRO A  7        6.787   3.750  -0.967  0.00  0.00    +0.031 C 
ATOM     14  CA  PRO A  7        6.579   2.284  -1.359  0.00  0.00    +0.154 C 
ATOM     15  O   HIS A  6        4.803   0.206  -1.894  0.00  0.00    -0.273 OA
BRANCH  14  16
ATOM     16  C   PRO A  7        7.731   1.513  -0.629  0.00  0.00    +0.260 C 
ATOM     17  N   PHE A  8        8.939   2.007  -0.272  0.00  0.00    -0.194 NA
ATOM     18  O   PRO A  7        7.477   0.286  -0.348  0.00  0.00    -0.272 OA
BRANCH  17  19
ATOM     19  CA  PHE A  8        9.909   0.975   0.487  0.00  0.00    +0.202 C 
BRANCH  19  20
ATOM     20  C   PHE A  8       11.255   1.395  -0.164  0.00  0.00    +0.385 C 
ATOM     21  OXT PHE A  8       12.381   0.784   0.226  0.00  0.00    -0.244 OA
ATOM     22  O   PHE A  8       11.162   2.290  -1.020  0.00  0.00    -0.244 OA
ENDBRANCH  19  20
BRANCH  19  23
ATOM     23  CB  PHE A  8        9.538  -0.256  -0.512  0.00  0.00    +0.060 C 
BRANCH  23  24
ATOM     24  CG  PHE A  8       10.346  -1.349   0.013  0.00  0.00    -0.020 A 
ATOM     25  CD2 PHE A  8       11.480  -1.793  -0.584  0.00  0.00    -0.004 A 
ATOM     26  CE2 PHE A  8       12.228  -2.867  -0.158  0.00  0.00    -0.000 A 
ATOM     27  CZ  PHE A  8       11.838  -3.565   0.943  0.00  0.00    -0.000 A 
ATOM     28  CE1 PHE A  8       10.662  -3.138   1.606  0.00  0.00    -0.000 A 
ATOM     29  CD1 PHE A  8        9.973  -2.076   1.133  0.00  0.00    -0.004 A 
ENDBRANCH  23  24
ENDBRANCH  19  23
ENDBRANCH  17  19
ENDBRANCH  14  16
ENDBRANCH   8   9
BRANCH   8  30
ATOM     30  CB  HIS A  6        4.067  -1.561  -0.157  0.00  0.00    +0.078 C 
BRANCH  30  31
ATOM     31  CG  HIS A  6        5.191  -1.913   0.728  0.00  0.00    +0.082 A 
ATOM     32  CD2 HIS A  6        5.626  -1.321   1.881  0.00  0.00    +0.115 A 
ATOM     33  NE2 HIS A  6        6.603  -1.920   2.479  0.00  0.00    -0.221 NA
ATOM     34  CE1 HIS A  6        6.879  -3.066   1.636  0.00  0.00    +0.199 A 
ATOM     35  ND1 HIS A  6        6.008  -2.961   0.661  0.00  0.00    -0.227 NA
ENDBRANCH  30  31
ENDBRANCH   8  30
ENDBRANCH   6   8
ENDBRANCH   4   5
BRANCH   4  36
ATOM     36  CB  ILE A  5        0.619   3.196  -1.345  0.00  0.00    +0.029 C 
ATOM     37  CG2 ILE A  5        1.208   3.700   0.048  0.00  0.00    +0.002 C 
BRANCH  36  38
ATOM     38  CG1 ILE A  5        2.027   3.157  -2.140  0.00  0.00    +0.002 C 
ATOM     39  CD1 ILE A  5        1.825   2.309  -3.342  0.00  0.00    +0.000 C 
ENDBRANCH  36  38
ENDBRANCH   4  36
ENDBRANCH   2   4
BRANCH   1  40
ATOM     40  CA  TYR A  4       -1.463   0.456   2.209  0.00  0.00    +0.177 C 
BRANCH  40  42
ATOM     41  C   VAL A  3       -3.843   0.708   1.137  0.00  0.00    +0.262 C 
ATOM     42  N   TYR A  4       -2.682   0.234   1.265  0.00  0.00    -0.196 NA
ATOM     43  O   VAL A  3       -4.181   1.581   1.977  0.00  0.00    -0.271 OA
BRANCH  41  44
ATOM     44  CA  VAL A  3       -4.818   0.242  -0.016  0.00  0.00    +0.173 C 
BRANCH  44  45
ATOM     45  CB  VAL A  3       -4.910   1.715  -0.727  0.00  0.00    +0.029 C 
ATOM     46  CG2 VAL A  3       -5.130   2.734   0.320  0.00  0.00    +0.002 C 
ATOM     47  CG1 VAL A  3       -3.596   1.853  -1.493  0.00  0.00    +0.002 C 
ENDBRANCH  44  45
BRANCH  44  49
ATOM     48  C   ARG A  2       -7.227  -0.118  -0.287  0.00  0.00    +0.262 C 
ATOM     49  N   VAL A  3       -6.215   0.352   0.687  0.00  0.00    -0.196 NA
ATOM     50  O   ARG A  2       -6.997  -0.506  -1.396  0.00  0.00    -0.271 OA
BRANCH  48  51
ATOM     51  CA  ARG A  2       -8.670  -0.034   0.331  0.00  0.00    +0.173 C 
BRANCH  51  53
ATOM     52  C   ASP A  1      -10.658   0.724  -0.849  0.00  0.00    +0.260 C 
ATOM     53  N   ARG A  2       -9.327   0.377  -1.021  0.00  0.00    -0.197 NA
ATOM     54  O   ASP A  1      -11.141   0.683   0.294  0.00  0.00    -0.272 OA
BRANCH  52  56
ATOM     55  N   ASP A  1      -12.868   1.418  -1.402  0.00  0.00    -0.122 NA
ATOM     56  CA  ASP A  1      -11.500   1.166  -2.118  0.00  0.00    +0.181 C 
BRANCH  56  57
ATOM     57  CB  ASP A  1      -11.060   2.775  -2.006  0.00  0.00    +0.142 C 
BRANCH  57  58
ATOM     58  CG  ASP A  1      -11.063   3.093  -0.599  0.00  0.00    +0.367 C 
ATOM     59  OD2 ASP A  1       -9.909   3.011   0.153  0.00  0.00    -0.246 OA
ATOM     60  OD1 ASP A  1      -12.121   3.456  -0.018  0.00  0.00    -0.246 OA
ENDBRANCH  57  58
ENDBRANCH  56  57
ENDBRANCH  52  56
ENDBRANCH  51  53
BRANCH  51  61
ATOM     61  CB  ARG A  2       -8.988  -1.649   0.049  0.00  0.00    +0.035 C 
BRANCH  61  62
ATOM     62  CG  ARG A  2       -8.402  -2.199   1.365  0.00  0.00    +0.049 C 
BRANCH  62  63
ATOM     63  CD  ARG A  2       -8.579  -3.718   1.330  0.00  0.00    +0.220 C 
BRANCH  63  64
ATOM     64  NE  ARG A  2      -10.004  -4.036   1.171  0.00  0.00    -0.087 NA
BRANCH  64  65
ATOM     65  CZ  ARG A  2      -10.593  -3.740  -0.084  0.00  0.00    +0.535 C 
ATOM     66  NH2 ARG A  2      -11.873  -3.161  -0.289  0.00  0.00    +0.135 NA
ATOM     67  NH1 ARG A  2       -9.883  -4.036  -1.139  0.00  0.00    +0.135 NA
ENDBRANCH  64  65
ENDBRANCH  63  64
ENDBRANCH  62  63
ENDBRANCH  61  62
ENDBRANCH  51  61
ENDBRANCH  48  51
ENDBRANCH  44  49
ENDBRANCH  41  44
ENDBRANCH  40  42
BRANCH  40  68
ATOM     68  CB  TYR A  4       -1.248  -1.230   2.459  0.00  0.00    +0.057 C 
BRANCH  68  69
ATOM     69  CG  TYR A  4       -1.029  -1.833   1.138  0.00  0.00    -0.020 A 
ATOM     70  CD2 TYR A  4       -0.046  -2.603   0.727  0.00  0.00    -0.001 A 
ATOM     71  CE2 TYR A  4        0.096  -3.169  -0.509  0.00  0.00    +0.042 A 
ATOM     72  CZ  TYR A  4       -0.944  -2.889  -1.468  0.00  0.00    +0.196 A 
ATOM     73  OH  TYR A  4       -0.753  -3.490  -2.740  0.00  0.00    -0.287 OA
ATOM     74  CE1 TYR A  4       -1.939  -2.124  -1.065  0.00  0.00    +0.042 A 
ATOM     75  CD1 TYR A  4       -2.013  -1.591   0.201  0.00  0.00    -0.001 A 
ENDBRANCH  68  69
ENDBRANCH  40  68
ENDBRANCH   1  40
TORSDOF 30
