REMARK  13 active torsions:
REMARK  status: ('A' for Active; 'I' for Inactive)
REMARK    1  A    between atoms: CA_2  and  C_3 
REMARK       I    between atoms: C_3  and  N_6 
REMARK    2  A    between atoms: N_6  and  CA_7 
REMARK    3  A    between atoms: CA_7  and  C_8 
REMARK       I    between atoms: C_8  and  N_11 
REMARK    4  A    between atoms: N_11  and  CA_12 
REMARK    5  A    between atoms: CA_12  and  C_13 
REMARK    6  A    between atoms: CA_12  and  CB_15 
REMARK       I    between atoms: C_13  and  N_17 
REMARK    7  A    between atoms: N_17  and  CA_18 
REMARK    8  A    between atoms: CA_18  and  C_19 
REMARK       I    between atoms: C_19  and  N_22 
REMARK    9  A    between atoms: N_22  and  CA_23 
REMARK   10  A    between atoms: CA_23  and  CB_26 
REMARK   11  A    between atoms: CA_23  and  C_24 
REMARK       I    between atoms: C_24  and  N_28 
REMARK   12  A    between atoms: N_28  and  CA_29 
REMARK   13  A    between atoms: CA_29  and  C_30 
ROOT
ATOM      1  N   ALA B   1      -3.691  21.761  -1.465  1.00 33.82     0.626 N 
ATOM      2  CA  ALA B   1      -3.875  20.511  -2.277  1.00 33.48     0.381 C 
ATOM      3  CB  ALA B   1      -4.153  20.861  -3.716  1.00 33.96     0.052 C 
ENDROOT
BRANCH   2   4
ATOM      4  C   ALA B   1      -2.690  19.561  -2.186  1.00 33.14     0.289 C 
ATOM      5  O   ALA B   1      -2.769  18.418  -2.654  1.00 33.78    -0.268 OA
ATOM      6  N   ALA B   2      -1.592  20.046  -1.611  1.00 32.02    -0.229 NA
BRANCH   6   7
ATOM      7  CA  ALA B   2      -0.427  19.225  -1.309  1.00 31.29     0.186 C 
ATOM      8  CB  ALA B   2       0.839  20.018  -1.596  1.00 31.24     0.037 C 
BRANCH   7   9
ATOM      9  C   ALA B   2      -0.458  18.820   0.161  1.00 30.60     0.274 C 
ATOM     10  O   ALA B   2      -0.254  17.661   0.505  1.00 30.40    -0.268 OA
ATOM     11  N   SER B   3      -0.707  19.797   1.025  1.00 30.15    -0.226 NA
BRANCH  11  12
ATOM     12  CA  SER B   3      -0.596  19.601   2.455  1.00 29.76     0.219 C 
BRANCH  12  13
ATOM     13  C   SER B   3      -1.979  19.368   3.059  1.00 29.46     0.277 C 
ATOM     14  O   SER B   3      -2.985  19.833   2.518  1.00 29.29    -0.268 OA
ATOM     15  N   ALA B   4      -2.008  18.642   4.175  1.00 28.70    -0.229 NA
BRANCH  15  16
ATOM     16  CA  ALA B   4      -3.252  18.277   4.854  1.00 28.07     0.186 C 
ATOM     17  CB  ALA B   4      -3.466  16.762   4.787  1.00 28.13     0.037 C 
BRANCH  16  18
ATOM     18  C   ALA B   4      -3.212  18.706   6.306  1.00 27.72     0.274 C 
ATOM     19  O   ALA B   4      -2.157  18.686   6.939  1.00 26.03    -0.268 OA
ATOM     20  N   SER B   5      -4.380  19.065   6.831  1.00 27.70    -0.226 NA
BRANCH  20  21
ATOM     21  CA  SER B   5      -4.580  19.155   8.273  1.00 28.70     0.219 C 
BRANCH  21  22
ATOM     22  CB  SER B   5      -6.064  19.404   8.597  1.00 28.19     0.216 C 
ATOM     23  OG  SER B   5      -6.512  20.685   8.142  1.00 31.03    -0.218 OA
ENDBRANCH  21  22
BRANCH  21  24
ATOM     24  C   SER B   5      -4.113  17.843   8.917  1.00 28.90     0.277 C 
ATOM     25  O   SER B   5      -4.514  16.756   8.495  1.00 29.19    -0.268 OA
ATOM     26  N   ALA B   6      -3.241  17.938   9.911  1.00 29.26    -0.230 NA
BRANCH  26  27
ATOM     27  CA  ALA B   6      -2.782  16.760  10.631  1.00 30.00     0.171 C 
ATOM     28  CB  ALA B   6      -2.594  15.557   9.682  1.00 31.04     0.035 C 
BRANCH  27  29
ATOM     29  C   ALA B   6      -1.502  17.028  11.381  1.00 30.03     0.231 C 
ATOM     30  O   ALA B   6      -1.005  16.130  12.067  1.00 31.65    -0.286 OA
ENDBRANCH  27  29
ENDBRANCH  26  27
ENDBRANCH  21  24
ENDBRANCH  20  21
ENDBRANCH  16  18
ENDBRANCH  15  16
ENDBRANCH  12  13
BRANCH  12  31
ATOM     31  CB  SER B   3       0.098  20.811   3.086  1.00 29.85     0.216 C 
ATOM     32  OG  SER B   3       1.362  21.045   2.455  1.00 32.14    -0.218 OA
ENDBRANCH  12  31
ENDBRANCH  11  12
ENDBRANCH   7   9
ENDBRANCH   6   7
ENDBRANCH   2   4
TORSDOF 13
